
**** 11/28/13 19:56:20 ******* PSpice 10.5.0 (Jan 2005) ******* ID# 2090008609 
 ** Profile: "SCHEMATIC1-bias"  [ C:\example\e14\p108-2-4-1-pspicefiles\schematic1\bias.sim ] 


 ****     CIRCUIT DESCRIPTION


******************************************************************************




** Creating circuit file "bias.cir" 
** WARNING: THIS AUTOMATICALLY GENERATED FILE MAY BE OVERWRITTEN BY SUBSEQUENT SIMULATIONS

*Libraries: 
* Profile Libraries :
* Local Libraries :
* From [PSPICE NETLIST] section of C:\OrCAD\OrCAD_10.5\tools\PSpice\PSpice.ini file:
.lib "nom.lib" 

*Analysis directives: 
.OP
.TF v([OUT]) V2
.PROBE V(alias(*)) I(alias(*)) W(alias(*)) D(alias(*)) NOISE(alias(*)) 
.INC "..\SCHEMATIC1.net" 



**** INCLUDING SCHEMATIC1.net ****
* source P108-2-4-1
V_V4         N00839 0  
+SIN 0 10m 1k 0 0 0
R_R1         N00247 N00279  5.1k  
R_R2         N00279 N00163  12k  
R_R3         N04032 0  2.3k  
C_C3         0 N04032  100u   
X_Q1         N00247 N00163 N04032 awb2n3904 PARAMS:                            
+                 
R_R5         N00163 0  5k  
V_V1         N00279 0 12
V_V3         N00839 N002370 0Vdc
R_R4         0 OUT  5.1k  
C_C1         N00247 OUT  10u   
C_C2         N002370 N00163  10u   

**** RESUMING bias.cir ****
.END

ERROR -- TF device V2 is undefined