
**** 08/12/13 10:31:46 ******* PSpice 10.5.0 (Jan 2005) ******* ID# 2090008609 
 ** Profile: "SCHEMATIC1-bias"  [ D:\temp\example\e11\1-5-pspicefiles\schematic1\bias.sim ] 


 ****     CIRCUIT DESCRIPTION


******************************************************************************




** Creating circuit file "bias.cir" 
** WARNING: THIS AUTOMATICALLY GENERATED FILE MAY BE OVERWRITTEN BY SUBSEQUENT SIMULATIONS

*Libraries: 
* Profile Libraries :
* Local Libraries :
* From [PSPICE NETLIST] section of C:\OrCAD\OrCAD_10.5\tools\PSpice\PSpice.ini file:
.lib "nom.lib" 

*Analysis directives: 
.DC LIN V_V1 -200 200 1 
.PROBE V(alias(*)) I(alias(*)) W(alias(*)) D(alias(*)) NOISE(alias(*)) 
.INC "..\SCHEMATIC1.net" 



**** INCLUDING SCHEMATIC1.net ****
* source 1-5
V_V1         N00122 0 0Vdc
X_D1         VDIODE 0 awbbzx55c3v6 PARAMS:               
R_R1         VDIODE N00122  10k  

**** RESUMING bias.cir ****
.END


          JOB CONCLUDED

**** 08/12/13 10:31:46 ******* PSpice 10.5.0 (Jan 2005) ******* ID# 2090008609 
 ** Profile: "SCHEMATIC1-bias"  [ D:\temp\example\e11\1-5-pspicefiles\schematic1\bias.sim ] 


 ****     JOB STATISTICS SUMMARY


******************************************************************************



  Total job time (using Solver 1)   =         .05
