
**** 08/14/13 16:02:30 ******* PSpice 10.5.0 (Jan 2005) ******* ID# 2090008609 
 ** Profile: "SCHEMATIC1-bias"  [ D:\temp\example\e6\p63-7-3-pspicefiles\schematic1\bias.sim ] 


 ****     CIRCUIT DESCRIPTION


******************************************************************************




** Creating circuit file "bias.cir" 
** WARNING: THIS AUTOMATICALLY GENERATED FILE MAY BE OVERWRITTEN BY SUBSEQUENT SIMULATIONS

*Libraries: 
* Profile Libraries :
* Local Libraries :
* From [PSPICE NETLIST] section of C:\OrCAD\OrCAD_10.5\tools\PSpice\PSpice.ini file:
.lib "nom.lib" 

*Analysis directives: 
.TRAN  0 100m 0 100u SKIPBP 
.PROBE V(alias(*)) I(alias(*)) W(alias(*)) D(alias(*)) NOISE(alias(*)) 
.INC "..\SCHEMATIC1.net" 



**** INCLUDING SCHEMATIC1.net ****
* source P63-7-3
X_U5         0 N024071 Sw_tOpen PARAMS: tOpen=50m ttran=1u Rclosed=0.01
+  Ropen=1Meg
R_R1         N00544 N02589  20k  
V_V1         N00544 0 10
C_C1         N02589 0  0.1u IC=0  
R_R6         N024071 N02589  30k  

**** RESUMING bias.cir ****
.END

**** 08/14/13 16:02:30 ******* PSpice 10.5.0 (Jan 2005) ******* ID# 2090008609 
 ** Profile: "SCHEMATIC1-bias"  [ D:\temp\example\e6\p63-7-3-pspicefiles\schematic1\bias.sim ] 


 ****     Voltage Controlled Switch MODEL PARAMETERS


******************************************************************************




               X_U5.Smod       
         RON     .01         
        ROFF    1.000000E+06 
         VON    1            
        VOFF    0            



          JOB CONCLUDED

**** 08/14/13 16:02:30 ******* PSpice 10.5.0 (Jan 2005) ******* ID# 2090008609 
 ** Profile: "SCHEMATIC1-bias"  [ D:\temp\example\e6\p63-7-3-pspicefiles\schematic1\bias.sim ] 


 ****     JOB STATISTICS SUMMARY


******************************************************************************



  Total job time (using Solver 1)   =         .06
