
**** 05/06/10 14:43:53 ******* PSpice 10.0.0 (Jan 2003) ******* ID# 1111111111 
 ** Profile: "SCHEMATIC1-bias"  [ D:\MY pspice\2\p63-7-3-pspicefiles\schematic1\bias.sim ] 


 ****     CIRCUIT DESCRIPTION


******************************************************************************




** Creating circuit file "bias.cir" 
** WARNING: THIS AUTOMATICALLY GENERATED FILE MAY BE OVERWRITTEN BY SUBSEQUENT SIMULATIONS

*Libraries: 
* Profile Libraries :
* Local Libraries :
* From [PSPICE NETLIST] section of g:\OrCAD\OrCAD_10.0\tools\PSpice\PSpice.ini file:
.lib "nom.lib" 

*Analysis directives: 
.TRAN  0 1000ns 0 
.PROBE V(alias(*)) I(alias(*)) W(alias(*)) D(alias(*)) NOISE(alias(*)) 
.INC "..\SCHEMATIC1.net" 



**** INCLUDING SCHEMATIC1.net ****
* source P63-7-3
R_R1         N00526 N00381  9  
R_R2         A N00381  4  
R_R4         B N00381  3  
R_R3         N00402 A  8  
R_R5         N00402 B  1  
C_C1         N00402 N00526  1F   
V_V1         N00544 N00402 10
X_U5         N00544 N00526 Sw_tOpen PARAMS: tOpen=0 ttran=1u Rclosed=0.01
+  Ropen=1Meg

**** RESUMING bias.cir ****
.END

ERROR -- Node N00526 is floating
ERROR -- Node N00381 is floating
ERROR -- Node A is floating
ERROR -- Node B is floating
ERROR -- Node N00402 is floating
ERROR -- Node N00544 is floating