
**** 03/26/19 18:27:48 ****** PSpice 17.2.0 (March 2016) ****** ID# 0 ********

 ** Profile: "SCHEMATIC1-1"  [ C:\Users\lun55\Desktop\电子电路仿真\project1\project-PSpiceFiles\SCHEMATIC1\1.sim ] 


 ****     CIRCUIT DESCRIPTION


******************************************************************************




** Creating circuit file "1.cir" 
** WARNING: THIS AUTOMATICALLY GENERATED FILE MAY BE OVERWRITTEN BY SUBSEQUENT SIMULATIONS

*Libraries: 
* Profile Libraries :
* Local Libraries :
* From [PSPICE NETLIST] section of D:\Cadence\SPB_Data\cdssetup\OrCAD_PSpice\17.2.0\PSpice.ini file:
.lib "nom.lib" 

*Analysis directives: 
.TRAN  0 100m 0 1u SKIPBP 
.OPTIONS ADVCONV
.PROBE64 V(alias(*)) I(alias(*)) W(alias(*)) D(alias(*)) NOISE(alias(*)) 
.INC "..\SCHEMATIC1.net" 



**** INCLUDING SCHEMATIC1.net ****
* source PROJECT
R_R1         0 N15601  4 TC=0,0 
R_R2         0 N14479  6 TC=0,0 
R_R3         N15601 N14479  2 TC=0,0 
R_R4         N14479 N14812  2 TC=0,0 
I_I1         0 N15601 DC 5A  
E_E1         N14479 N15601 N15601 0 2
R_R5         0 N14812  100k TC=0,0 
R_R8         0 N16193  4 TC=0,0 
R_R6         N16193 N16205  2 TC=0,0 
R_R7         N16205 0  2 TC=0,0 
E_E2         N16205 N16193 N16193 0 2
R_R9         0 N16205  6 TC=0,0 
I_I2         0 N16193 DC 5A  

**** RESUMING 1.cir ****
.END


          JOB CONCLUDED

**** 03/26/19 18:27:48 ****** PSpice 17.2.0 (March 2016) ****** ID# 0 ********

 ** Profile: "SCHEMATIC1-1"  [ C:\Users\lun55\Desktop\电子电路仿真\project1\project-PSpiceFiles\SCHEMATIC1\1.sim ] 


 ****     JOB STATISTICS SUMMARY


******************************************************************************



  Total job time (using Solver 1)   =         .78
