
**** 03/26/19 17:38:18 ****** PSpice 17.2.0 (March 2016) ****** ID# 0 ********

 ** Profile: "SCHEMATIC1-1"  [ C:\Users\lun55\Desktop\电子电路仿真\project1\project-PSpiceFiles\SCHEMATIC1\1.sim ] 


 ****     CIRCUIT DESCRIPTION


******************************************************************************




** Creating circuit file "1.cir" 
** WARNING: THIS AUTOMATICALLY GENERATED FILE MAY BE OVERWRITTEN BY SUBSEQUENT SIMULATIONS

*Libraries: 
* Profile Libraries :
* Local Libraries :
* From [PSPICE NETLIST] section of D:\Cadence\SPB_Data\cdssetup\OrCAD_PSpice\17.2.0\PSpice.ini file:
.lib "nom.lib" 

*Analysis directives: 
.TRAN  0 100m 0 1u SKIPBP 
.OPTIONS ADVCONV
.PROBE64 V(alias(*)) I(alias(*)) W(alias(*)) D(alias(*)) NOISE(alias(*)) 
.INC "..\SCHEMATIC1.net" 



**** INCLUDING SCHEMATIC1.net ****
* source PROJECT
R_R1         0 0  4 TC=0,0 
R_R2         0 0  6 TC=0,0 
R_R3         0 0  2 TC=0,0 
R_R4         0 N14812  2 TC=0,0 
I_I1         0 0 DC 5A  
E_E1         0 0 0 0 2
R_R5         0 N14812  1m TC=0,0 

**** RESUMING 1.cir ****
.END

ERROR(ORPSIM-15143): Voltage source and/or inductor loop involving E_E1. You may break the loop by adding a series resistance
