
**** 09/11/13 14:40:53 ******* PSpice 10.5.0 (Jan 2005) ******* ID# 2090008609 
 ** Profile: "SCHEMATIC1-test8-2"  [ C:\example\e26\test8-pspicefiles\schematic1\test8-2.sim ] 


 ****     CIRCUIT DESCRIPTION


******************************************************************************




** Creating circuit file "test8-2.cir" 
** WARNING: THIS AUTOMATICALLY GENERATED FILE MAY BE OVERWRITTEN BY SUBSEQUENT SIMULATIONS

*Libraries: 
* Profile Libraries :
* Local Libraries :
* From [PSPICE NETLIST] section of C:\OrCAD\OrCAD_10.5\tools\PSpice\PSpice.ini file:
.lib "nom.lib" 

*Analysis directives: 
.DC LIN V_V10 -3 3 0.001 
.PROBE V(alias(*)) I(alias(*)) W(alias(*)) D(alias(*)) NOISE(alias(*)) 
.INC "..\SCHEMATIC1.net" 



**** INCLUDING SCHEMATIC1.net ****
* source TEST8
V_V13         N11552 0 15
R_R7         0 N10412  1k  
V_V12         N11195 0 -15
R_R9         N13156 N10758  1k  
X_U1C         N10412 N10758 N11552 N11195 N10477 LM324
R_R8         N10412 N10477  10k  
V_V10         N13156 0 0Vdc

**** RESUMING test8-2.cir ****
.END

**** 09/11/13 14:40:53 ******* PSpice 10.5.0 (Jan 2005) ******* ID# 2090008609 
 ** Profile: "SCHEMATIC1-test8-2"  [ C:\example\e26\test8-pspicefiles\schematic1\test8-2.sim ] 


 ****     Diode MODEL PARAMETERS


******************************************************************************




               X_U1C.dx        X_U1C.dy        
          IS  800.000000E-18  800.000000E-18 
          RS    1               1.000000E-03 
         CJO                   10.000000E-12 


**** 09/11/13 14:40:53 ******* PSpice 10.5.0 (Jan 2005) ******* ID# 2090008609 
 ** Profile: "SCHEMATIC1-test8-2"  [ C:\example\e26\test8-pspicefiles\schematic1\test8-2.sim ] 


 ****     BJT MODEL PARAMETERS


******************************************************************************




               X_U1C.qx        
               PNP             
       LEVEL    1            
          IS  800.000000E-18 
          BF  166.7          
          NF    1            
          BR    1            
          NR    1            
         ISS    0            
          RE    0            
          RC    0            
         CJE    0            
         VJE     .75         
         CJC    0            
         VJC     .75         
         MJC     .33         
        XCJC    1            
         CJS    0            
         VJS     .75         
          KF    0            
          AF    1            
          CN    2.2          
           D     .52         


**** 09/11/13 14:40:53 ******* PSpice 10.5.0 (Jan 2005) ******* ID# 2090008609 
 ** Profile: "SCHEMATIC1-test8-2"  [ C:\example\e26\test8-pspicefiles\schematic1\test8-2.sim ] 


 ****     Current Controlled Switch MODEL PARAMETERS


******************************************************************************




               X_U1C.sw2       X_U1C.sw1       X_U1C.sw3       X_U1C.sw4       
         RON    1               1               1               1            
        ROFF   10.000000E+06   10.000000E+06   10.000000E+06   10.000000E+06 
         ION    0              -1.000000E-06   -1.000000E-06    0            
        IOFF   -1.000000E-06    0               0              -1.000000E-06 



          JOB CONCLUDED

**** 09/11/13 14:40:53 ******* PSpice 10.5.0 (Jan 2005) ******* ID# 2090008609 
 ** Profile: "SCHEMATIC1-test8-2"  [ C:\example\e26\test8-pspicefiles\schematic1\test8-2.sim ] 


 ****     JOB STATISTICS SUMMARY


******************************************************************************



  Total job time (using Solver 1)   =         .55
