
**** 03/26/19 15:10:45 ****** PSpice 17.2.0 (March 2016) ****** ID# 0 ********

 ** Profile: "SCHEMATIC1-bias"  [ C:\USERS\lun55\Desktop\电子电路仿真\project\project1-pspicefiles\schematic1\bias.sim ] 


 ****     CIRCUIT DESCRIPTION


******************************************************************************




** Creating circuit file "bias.cir" 
** WARNING: THIS AUTOMATICALLY GENERATED FILE MAY BE OVERWRITTEN BY SUBSEQUENT SIMULATIONS

*Libraries: 
* Profile Libraries :
* Local Libraries :
* From [PSPICE NETLIST] section of D:\Cadence\SPB_Data\cdssetup\OrCAD_PSpice\17.2.0\PSpice.ini file:
.lib "nom.lib" 

*Analysis directives: 
.OPTIONS ADVCONV
.PROBE64 V(alias(*)) I(alias(*)) W(alias(*)) D(alias(*)) NOISE(alias(*)) 
.INC "..\SCHEMATIC1.net" 



**** INCLUDING SCHEMATIC1.net ****
* source PROJECT1
C_C1         N14399 N14415  1u  TC=0,0 
L_L1         N143640 N14399  1mH  
R_R1         N14415 N143640  1k TC=0,0 

**** RESUMING bias.cir ****
.END

ERROR(ORPSIM-15142): Node N14399 is floating

ERROR(ORPSIM-15142): Node N14415 is floating

ERROR(ORPSIM-15142): Node N143640 is floating
