
**** 04/16/19 17:11:17 ******* PSpice 10.5.0 (Jan 2005) ******* ID# 0 ********

 ** Profile: "SCHEMATIC1-111"  [ C:\Users\DPL\Desktop\project3\project3-PSpiceFiles\SCHEMATIC1\111.sim ] 


 ****     CIRCUIT DESCRIPTION


******************************************************************************




** Creating circuit file "111.cir" 
** WARNING: THIS AUTOMATICALLY GENERATED FILE MAY BE OVERWRITTEN BY SUBSEQUENT SIMULATIONS

*Libraries: 
* Profile Libraries :
* Local Libraries :
* From [PSPICE NETLIST] section of C:\OrCAD\OrCAD_10.5\tools\PSpice\PSpice.ini file:
.lib "nom.lib" 

*Analysis directives: 
.AC DEC 1k 1 1m
-------------$
ERROR -- Invalid value
.STEP DEC PARAM Cval 1n 10u 1 
.PROBE V(alias(*)) I(alias(*)) W(alias(*)) D(alias(*)) NOISE(alias(*)) 
.INC "..\SCHEMATIC1.net" 



**** INCLUDING SCHEMATIC1.net ****
* source PROJECT3
V_V1         N01730 0 DC 0Vdc AC 1Vac 
R_R1         N01730 N00471  999k  
R_R2         N004201 N00471  1k  
C_C1         N004201 0  {Cval} IC=10 
.PARAM  Cval=1n

**** RESUMING 111.cir ****
.END
