
**** 04/16/19 22:13:10 ****** PSpice 17.2.0 (March 2016) ****** ID# 0 ********

 ** Profile: "SCHEMATIC1-dc"  [ C:\Users\lun55\Desktop\Electricity-Circuit-Simulation\电子电路仿真\project4\project4-pspicefiles\sche


 ****     CIRCUIT DESCRIPTION


******************************************************************************




** Creating circuit file "dc.cir" 
** WARNING: THIS AUTOMATICALLY GENERATED FILE MAY BE OVERWRITTEN BY SUBSEQUENT SIMULATIONS

*Libraries: 
* Profile Libraries :
* Local Libraries :
* From [PSPICE NETLIST] section of D:\Cadence\SPB_Data\cdssetup\OrCAD_PSpice\17.2.0\PSpice.ini file:
.lib "nom.lib" 

*Analysis directives: 
.DC LIN V_Ud 0 60 0.01 
+ LIN V_Vdd 0 100 1 
.OPTIONS ADVCONV
.PROBE64 V(alias(*)) I(alias(*)) W(alias(*)) D(alias(*)) NOISE(alias(*)) 
.INC "..\SCHEMATIC1.net" 



**** INCLUDING SCHEMATIC1.net ****
* source PROJECT4
M_M1         1 N01999 0 0 M2N6660
R_R2         N01301 1  4.7k  
V_Vdd         N01999 0 0Vdc
V_Ud         N01301 0 0Vdc

**** RESUMING dc.cir ****
.END

**** 04/16/19 22:13:10 ****** PSpice 17.2.0 (March 2016) ****** ID# 0 ********

 ** Profile: "SCHEMATIC1-dc"  [ C:\Users\lun55\Desktop\Electricity-Circuit-Simulation\电子电路仿真\project4\project4-pspicefiles\sche


 ****     MOSFET MODEL PARAMETERS


******************************************************************************




               M2N6660         
               NMOS            
       LEVEL    3            
           L    2.000000E-06 
           W     .32         
         VTO    1.8          
          KP    1.047000E-06 
       GAMMA    0            
         PHI     .6          
      LAMBDA    0            
          RD     .4672       
          RS     .02         
          RG  209.5          
          RB    1.000000E-03 
         RDS    6.000000E+06 
          IS   10.000000E-15 
          JS    0            
          PB     .8          
        PBSW     .8          
         CBD  118.000000E-12 
          CJ    0            
        CJSW    0            
        CGSO    1.885000E-12 
        CGDO    7.564000E-12 
        CGBO    0            
         TOX    2.000000E-06 
          XJ    0            
       UCRIT   10.000000E+03 
       DELTA    0            
         ETA    0            
      DIOMOD    1            
         VFB    0            
        LETA    0            
        WETA    0            
          U0    0            
        TEMP    0            
         VDD    5            
       XPART    0            



          JOB CONCLUDED

**** 04/16/19 22:13:10 ****** PSpice 17.2.0 (March 2016) ****** ID# 0 ********

 ** Profile: "SCHEMATIC1-dc"  [ C:\Users\lun55\Desktop\Electricity-Circuit-Simulation\电子电路仿真\project4\project4-pspicefiles\sche


 ****     JOB STATISTICS SUMMARY


******************************************************************************



  Total job time (using Solver 1)   =        6.38
